/*--------------------------------*- C++ -*----------------------------------*\
| =========                 |                                                 |
| \\      /  F ield         | OpenFOAM: The Open Source CFD Toolbox           |
|  \\    /   O peration     | Version:  2.0.1                                 |
|   \\  /    A nd           | Web:      www.OpenFOAM.com                      |
|    \\/     M anipulation  |                                                 |
\*---------------------------------------------------------------------------*/
FoamFile
{
    version     2.0;
    format      ascii;
    class       dictionary;
    object      blockMeshDict;
}
// * * * * * * * * * * * * * * * * * * * * * * * * * * * * * * * * * * * * * //

scale 0.01;

vertices
(
    (0 0 0)
    (1 0 0)
    (1 100 0)
    (0 100 0)
    (0 0 1)
    (1 0 1)
    (1 100 1)
    (0 100 1)
);

blocks
(
    hex (0 1 2 3 4 5 6 7) (1 2000 1) simpleGrading (1 1 1)
);

edges           
(
);

boundary
(
    frontAndBack
    {
        type empty;
        faces
        (
			(0 1 2 3)
            (4 7 6 5)
            (0 3 7 4)
            (1 5 6 2)
        );
    }
   
    lowerWall
    {
        type wall;
        faces
        (
            (1 0 4 5)
        );
    }

    upperWall
    {
        type wall;
        faces
        (
            (3 2 6 7)
        );
    }
);

mergePatchPairs
(
);

// ************************************************************************* //
