/*--------------------------------*- C++ -*----------------------------------*\
| =========                 |                                                 |
| \\      /  F ield         | OpenFOAM: The Open Source CFD Toolbox           |
|  \\    /   O peration     | Version:  2.0.1                                 |
|   \\  /    A nd           | Web:      www.OpenFOAM.com                      |
|    \\/     M anipulation  |                                                 |
\*---------------------------------------------------------------------------*/
FoamFile
{
    version     2.0;
    format      ascii;
    class       dictionary;
    location    "system";
    object      controlDict;
}
// * * * * * * * * * * * * * * * * * * * * * * * * * * * * * * * * * * * * * //

libs (
      "libsoilFoam.so"
     );

application     soilFoam;

startFrom       latestTime;

startTime       0;

stopAt          endTime;

deltaT            0.6; 

writeInterval     300;

endTime           6000; 

adjustTimeStep    false;

deltaTSchedule
(

);

writeControl    runTime; 

purgeWrite      0;

writeFormat     ascii;

writePrecision  8;

writeCompression off;

timeFormat      fixed;

timePrecision   2;

runTimeModifiable true;

allowSystemOperations 1;

functions
{
        probes1
        {                
                type                probes;
                libs                (sampling);        
                timeStart           0;
                writeInterval       300;
                writeControl        runTime;
                interpolationScheme cellPointFace;
                probeLocations
                (
                     
                    
(0.005 0.0001 0.005)
(0.005 0.000105925372517729 0.005)
(0.005 0.000112201845430196 0.005)
(0.005 0.000118850222743702 0.005)
(0.005 0.000125892541179417 0.005)
(0.005 0.000133352143216332 0.005)
(0.005 0.000141253754462275 0.005)
(0.005 0.000149623565609443 0.005)
(0.005 0.000158489319246111 0.005)
(0.005 0.000167880401812256 0.005)
(0.005 0.000177827941003892 0.005)
(0.005 0.00018836490894898 0.005)
(0.005 0.000199526231496888 0.005)
(0.005 0.000211348903983665 0.005)
(0.005 0.000223872113856834 0.005)
(0.005 0.000237137370566165 0.005)
(0.005 0.000251188643150958 0.005)
(0.005 0.000266072505979881 0.005)
(0.005 0.000281838293126445 0.005)
(0.005 0.000298538261891796 0.005)
(0.005 0.000316227766016838 0.005)
(0.005 0.000334965439157827 0.005)
(0.005 0.000354813389233575 0.005)
(0.005 0.000375837404288444 0.005)
(0.005 0.000398107170553497 0.005)
(0.005 0.000421696503428582 0.005)
(0.005 0.000446683592150963 0.005)
(0.005 0.00047315125896148 0.005)
(0.005 0.000501187233627272 0.005)
(0.005 0.000530884444230988 0.005)
(0.005 0.000562341325190349 0.005)
(0.005 0.00059566214352901 0.005)
(0.005 0.000630957344480193 0.005)
(0.005 0.000668343917568614 0.005)
(0.005 0.000707945784384138 0.005)
(0.005 0.000749894209332456 0.005)
(0.005 0.000794328234724281 0.005)
(0.005 0.000841395141645195 0.005)
(0.005 0.000891250938133745 0.005)
(0.005 0.000944060876285923 0.005)
(0.005 0.001 0.005)
(0.005 0.00105925372517729 0.005)
(0.005 0.00112201845430196 0.005)
(0.005 0.00118850222743702 0.005)
(0.005 0.00125892541179417 0.005)
(0.005 0.00133352143216332 0.005)
(0.005 0.00141253754462275 0.005)
(0.005 0.00149623565609443 0.005)
(0.005 0.00158489319246111 0.005)
(0.005 0.00167880401812256 0.005)
(0.005 0.00177827941003892 0.005)
(0.005 0.0018836490894898 0.005)
(0.005 0.00199526231496888 0.005)
(0.005 0.00211348903983665 0.005)
(0.005 0.00223872113856834 0.005)
(0.005 0.00237137370566165 0.005)
(0.005 0.00251188643150958 0.005)
(0.005 0.00266072505979875 0.005)
(0.005 0.00281838293126439 0.005)
(0.005 0.00298538261891789 0.005)
(0.005 0.00316227766016831 0.005)
(0.005 0.0033496543915782 0.005)
(0.005 0.00354813389233567 0.005)
(0.005 0.00375837404288436 0.005)
(0.005 0.00398107170553488 0.005)
(0.005 0.00421696503428572 0.005)
(0.005 0.00446683592150953 0.005)
(0.005 0.00473151258961469 0.005)
(0.005 0.00501187233627261 0.005)
(0.005 0.00530884444230976 0.005)
(0.005 0.00562341325190336 0.005)
(0.005 0.00595662143528997 0.005)
(0.005 0.00630957344480179 0.005)
(0.005 0.00668343917568599 0.005)
(0.005 0.00707945784384122 0.005)
(0.005 0.00749894209332439 0.005)
(0.005 0.00794328234724263 0.005)
(0.005 0.00841395141645176 0.005)
(0.005 0.00891250938133725 0.005)
(0.005 0.00944060876285902 0.005)
(0.005 0.00999999999999977 0.005)
(0.005 0.0105925372517726 0.005)
(0.005 0.0112201845430194 0.005)
(0.005 0.0118850222743699 0.005)
(0.005 0.0125892541179414 0.005)
(0.005 0.0133352143216329 0.005)
(0.005 0.0141253754462272 0.005)
(0.005 0.014962356560944 0.005)
(0.005 0.0158489319246108 0.005)
(0.005 0.0167880401812252 0.005)
(0.005 0.0177827941003888 0.005)
(0.005 0.0188364908948976 0.005)
(0.005 0.0199526231496883 0.005)
(0.005 0.021134890398366 0.005)
(0.005 0.0223872113856829 0.005)
(0.005 0.023713737056616 0.005)
(0.005 0.0251188643150952 0.005)
(0.005 0.0266072505979875 0.005)
(0.005 0.0281838293126439 0.005)
(0.005 0.0298538261891789 0.005)
(0.005 0.0316227766016831 0.005)
(0.005 0.033496543915782 0.005)
(0.005 0.0354813389233567 0.005)
(0.005 0.0375837404288435 0.005)
(0.005 0.0398107170553488 0.005)
(0.005 0.0421696503428573 0.005)
(0.005 0.0446683592150953 0.005)
(0.005 0.047315125896147 0.005)
(0.005 0.0501187233627261 0.005)
(0.005 0.0530884444230976 0.005)
(0.005 0.0562341325190336 0.005)
(0.005 0.0595662143528997 0.005)
(0.005 0.0630957344480179 0.005)
(0.005 0.0668343917568599 0.005)
(0.005 0.0707945784384122 0.005)
(0.005 0.0749894209332439 0.005)
(0.005 0.0794328234724263 0.005)
(0.005 0.0841395141645176 0.005)
(0.005 0.0891250938133725 0.005)
(0.005 0.0944060876285902 0.005)
(0.005 0.0999999999999977 0.005)
(0.005 0.105925372517726 0.005)
(0.005 0.112201845430194 0.005)
(0.005 0.118850222743699 0.005)
(0.005 0.125892541179414 0.005)
(0.005 0.133352143216329 0.005)
(0.005 0.141253754462272 0.005)
(0.005 0.14962356560944 0.005)
(0.005 0.158489319246108 0.005)
(0.005 0.167880401812252 0.005)
(0.005 0.177827941003888 0.005)
(0.005 0.188364908948976 0.005)
(0.005 0.199526231496883 0.005)
(0.005 0.21134890398366 0.005)
(0.005 0.223872113856829 0.005)
(0.005 0.23713737056616 0.005)
(0.005 0.251188643150952 0.005)
(0.005 0.266072505979875 0.005)
(0.005 0.281838293126439 0.005)
(0.005 0.298538261891789 0.005)
(0.005 0.316227766016831 0.005)
(0.005 0.33496543915782 0.005)
(0.005 0.354813389233568 0.005)
(0.005 0.375837404288436 0.005)
(0.005 0.398107170553488 0.005)
(0.005 0.421696503428573 0.005)
(0.005 0.446683592150953 0.005)
(0.005 0.47315125896147 0.005)
(0.005 0.501187233627261 0.005)
(0.005 0.530884444230977 0.005)
(0.005 0.562341325190336 0.005)
(0.005 0.595662143528997 0.005)
(0.005 0.630957344480179 0.005)
(0.005 0.668343917568599 0.005)
(0.005 0.707945784384122 0.005)
(0.005 0.749894209332439 0.005)
(0.005 0.794328234724264 0.005)
(0.005 0.841395141645176 0.005)
(0.005 0.891250938133725 0.005)
(0.005 0.944060876285902 0.005)
(0.005 0.999999999999977 0.005)


                );     
                fields
                (                       
                        h
			Theta
                        K
                        Cv
                        DtMax
                );
        }
};

// ************************************************************************* //

