/*--------------------------------*- C++ -*----------------------------------*\
| =========                 |                                                 |
| \\      /  F ield         | OpenFOAM: The Open Source CFD Toolbox           |
|  \\    /   O peration     | Version:  2.0.1                                 |
|   \\  /    A nd           | Web:      www.OpenFOAM.com                      |
|    \\/     M anipulation  |                                                 |
\*---------------------------------------------------------------------------*/
FoamFile
{
    version     2.0;
    format      ascii;
    class       dictionary;
    location    "constant";
    object      transportProperties;
}
// * * * * * * * * * * * * * * * * * * * * * * * * * * * * * * * * * * * * * //

processes
{
    water
    {
        capillary_flow true;
        film_flow true;
        vapor_flow none;
    };
    heat {
        conduction_flow false;
        convection_flow false;
        vapor_flow false;
    };
};

swrc_model              "vg"; 
no_of_regions           1; 

shp_ret_vg_alpha_0      0.8;
shp_ret_vg_n_0          1.19;
shp_ret_th_s_0          0.38;
shp_ret_th_r_0          0.068;
shp_mual_k_sat_0        5.55556e-7;

algorithm {
};

// ************************************************************************* //
