/*--------------------------------*- C++ -*----------------------------------*\
| =========                 |                                                 |
| \\      /  F ield         | OpenFOAM: The Open Source CFD Toolbox           |
|  \\    /   O peration     | Version:  2306                                  |
|   \\  /    A nd           | Website:  www.openfoam.com                      |
|    \\/     M anipulation  |                                                 |
\*---------------------------------------------------------------------------*/
FoamFile
{
    version     2.0;
    format      ascii;
    arch        "LSB;label=32;scalar=64";
    class       polyBoundaryMesh;
    location    "constant/polyMesh";
    object      boundary;
}
// * * * * * * * * * * * * * * * * * * * * * * * * * * * * * * * * * * * * * //

3
(
    frontAndBack
    {
        type            empty;
        inGroups        1(empty);
        nFaces          400;
        startFace       99;
    }
    lowerWall
    {
        type            wall;
        inGroups        1(wall);
        nFaces          1;
        startFace       499;
    }
    upperWall
    {
        type            wall;
        inGroups        1(wall);
        nFaces          1;
        startFace       500;
    }
)

// ************************************************************************* //
